96
Energy =
H    -2.0117850    3.1282570    0.8806350
H    -2.8973750    3.5813210    1.9978640
O    -2.4507650    2.7868730    1.6672140
H    -3.4972770   -1.0302280    2.4847020
H    -4.4163050   -1.7535130    1.5514200
O    -3.7243640   -1.9417200    2.2051990
H    -0.8581720   -1.2035450    4.3310300
H    -0.9123870    0.3001540    4.2382520
O    -0.3125560   -0.4167630    4.1513630
H     1.2881340    2.8897120    0.1871990
H     1.2846850    2.4531460    1.6321210
O     0.8717840    3.0678060    1.0292140
H    -0.7048480   -1.4344560   -3.6267830
H    -1.0837510   -0.7583270   -2.3357630
O    -1.4689400   -1.0251450   -3.2191010
H    -4.0189730    0.5965930    4.2871720
H    -3.7137910    1.2371820    2.9558400
O    -3.5000290    0.4601000    3.4321200
H     1.4196190   -3.2878590    2.6678850
H     1.0286940   -2.1333880    3.5874620
O     1.7924700   -2.6600110    3.3387960
H     0.5350700    1.0125960   -2.6221200
H     0.8321620    2.1657740   -3.5636120
O     1.2249410    1.6710990   -2.8385430
H     2.3462920    2.3328710   -1.6924600
H     3.3921290    3.4246860   -1.8391380
O     2.9486450    2.8638690   -1.1480800
H     4.8039990   -0.3248450    0.0373410
H     4.3289950   -0.8203200   -1.2886650
O     4.7036570   -1.1213280   -0.4461970
H    -1.4533960    2.6156140    4.5642540
H    -1.2133440    2.5206280    3.0813290
O    -0.7253490    2.5924830    3.9337430
H     4.7990980    2.0860590    1.1715910
H     4.1625590    1.8745520   -0.1735030
O     4.9176790    1.5453680    0.3496550
H    -0.6851230   -4.2042260    2.2016080
H    -0.0614500   -4.7341170    0.9328160
O     0.1300020   -4.2513190    1.7436420
H    -2.6890540   -3.3639660    2.4998710
H    -2.0997400   -4.2092140    3.5706640
O    -2.4379770   -4.2894100    2.6635940
H    -5.3876600    1.0262450   -1.2669980
H    -4.1121620    1.8088050   -1.0866780
O    -5.0786600    1.8828450   -0.8706670
H     1.4873710   -2.9061160   -3.8177040
H     0.4263800   -3.1768870   -4.8524530
O     0.6315060   -2.5809690   -4.0956540
H    -2.9799680    0.1281880   -3.0150900
H    -4.2250270    0.4596850   -3.8343390
O    -3.5323030    0.8519000   -3.2717360
H    -0.8800950   -3.3518250    5.6756350
H    -2.3670890   -3.0822420    5.5105780
O    -1.4892040   -2.9720450    5.0438070
H     4.3071390   -3.2336070    3.1201610
H     4.4305080   -2.3485690    1.8880700
O     4.8852870   -3.0355790    2.3826680
H     3.9538510    2.9331680    3.3677710
H     5.4145760    2.9588450    2.9840040
O     4.5663050    2.9771500    2.5962970
H     3.0941500    1.1565760    5.8991310
H     2.3776770    1.9189750    4.8194180
O     3.2530270    1.5293820    5.0269790
H    -2.1176410    3.8116530   -2.4876190
H    -3.0873330    2.6418990   -2.5728010
O    -2.7567870    3.3491600   -1.9553490
H     3.8573210    0.7802530   -2.8847030
H     4.7814040   -0.0290900   -3.7445310
O     4.3245260   -0.0635570   -2.8785650
H    -7.0300170   -1.3951210    1.4267500
H    -6.1822960   -0.2705290    0.8677360
O    -6.3523000   -0.7884040    1.6650880
H     3.6777390   -1.9197490   -3.0355730
H     3.7560790   -3.1114200   -3.9797230
O     3.1677610   -2.7135050   -3.3109080
H     4.8337340   -0.0298960    2.8313400
H     4.5966470    0.5887470    4.1688260
O     5.2152630   -0.0264510    3.7182280
H     4.9262180   -2.9172710   -0.7005040
H     4.9317260   -4.0958410    0.2420010
O     5.1676610   -3.8519810   -0.6698720
H    -2.6476850   -2.4059650   -3.1148150
H    -2.6860250   -3.7971260   -2.4863950
O    -3.1759570   -3.2002890   -3.0888380
H    -6.1295290   -0.9244280   -1.6303150
H    -7.4469780   -0.6665420   -0.9016340
O    -6.6281530   -0.2332570   -1.1295470
H     0.7648920    3.2477420    4.4838910
H     1.3737870    4.6103370    4.2268560
O     1.6033500    3.7536050    4.6163090
H    -3.5933460    2.8059730    5.8718260
H    -3.0433080    4.1745690    5.5863930
O    -2.9495580    3.2334910    5.3257510
H     0.0142270   -5.5671200   -1.6331470
H    -1.4634990   -5.7035420   -1.3368490
O    -0.6536700   -5.3085270   -0.9469680