260
Energy =
C     4.3710913    0.0000000    5.7218328
C     4.6297777    1.3867067    5.4301301
C     3.2193493   -0.3619705    6.5076014
C     5.1279874   -1.0247362    5.0495317
C     3.6722375    2.4169831    5.8052584
C     5.6655071    1.6984723    4.4713871
C     4.7034611   -2.3974396    5.2063248
C     6.0579146   -0.6836872    3.9827633
C     2.7312227   -1.7332958    6.5241297
C     2.3657145    0.6989673    6.9922043
C     5.8164794    3.0366838    4.0761585
C     5.3463854   -3.3782272    4.4352784
C     1.1667487    0.3415433    7.6282367
C     1.3507415    4.1571549    5.7218328
C    -3.5362871    2.5692630    5.7218328
C    -3.5362871   -2.5692630    5.7218328
C     1.3507415   -4.1571549    5.7218328
C     2.1855456   -6.7264178    1.3507415
C     5.7218328   -4.1571549   -1.3507415
C     7.0725743    0.0000000    1.3507415
C     5.7218328    4.1571549   -1.3507415
C     2.1855456    6.7264178    1.3507415
C    -2.1855456    6.7264178   -1.3507415
C    -5.7218328    4.1571549    1.3507415
C    -7.0725743   -0.0000000   -1.3507415
C    -5.7218328   -4.1571549    1.3507415
C    -2.1855456   -6.7264178   -1.3507415
C    -1.3507415   -4.1571549   -5.7218328
C     3.5362871   -2.5692630   -5.7218328
C     3.5362871    2.5692630   -5.7218328
C    -1.3507415    4.1571549   -5.7218328
C    -4.3710913   -0.0000000   -5.7218328
C     0.1118435    4.8316961    5.4301301
C    -4.5606545    1.5994457    5.4301301
C    -2.9304831   -3.8431843    5.4301301
C     2.7495164   -3.9746643    5.4301301
C     0.6100532   -5.1936667    5.0495317
C     2.5878144   -6.7931124   -0.0308143
C     6.4194341   -2.9499281   -1.7125710
C     6.8097441    1.0247362    2.3283921
C     1.3390881    2.9499281    6.5076014
C     7.2603125    0.3619705   -0.0308143
C     4.7892626    5.1936667   -1.7125710
C     1.1297447    6.7931124    2.3283921
C    -2.3917474    2.1851264    6.5076014
C     2.5592172    4.5603449    5.0495317
C     1.8993055    7.0168225   -0.0308143
C    -3.4595070    6.1597906   -1.7125710
C    -6.1115235    3.1736382    2.3283921
C    -2.8172693   -1.5994457    6.5076014
C    -3.5463041    3.8431843    5.0495317
C    -6.0864771    3.9746643   -0.0308143
C    -6.9273555   -1.3867067   -1.7125710
C    -4.9068739   -4.8316961    2.3283921
C     0.6505792   -3.1736382    6.5076014
C    -4.7509537   -2.1851264    5.0495317
C    -5.6609552   -4.5603449   -0.0308143
C    -0.8218341   -7.0168225   -1.7125710
C     3.0789087   -6.1597906    2.3283921
C     5.6609552   -4.5603449    0.0308143
C     0.8218341   -7.0168225    1.7125710
C    -3.0789087   -6.1597906   -2.3283921
C    -0.6505792   -3.1736382   -6.5076014
C     4.7509537   -2.1851264   -5.0495317
C     6.0864771    3.9746643    0.0308143
C     6.9273555   -1.3867067    1.7125710
C     4.9068739   -4.8316961   -2.3283921
C     2.8172693   -1.5994457   -6.5076014
C     3.5463041    3.8431843   -5.0495317
C    -1.8993055    7.0168225    0.0308143
C     3.4595070    6.1597906    1.7125710
C     6.1115235    3.1736382   -2.3283921
C     2.3917474    2.1851264   -6.5076014
C    -2.5592172    4.5603449   -5.0495317
C    -7.2603125    0.3619705    0.0308143
C    -4.7892626    5.1936667    1.7125710
C    -1.1297447    6.7931124   -2.3283921
C    -1.3390881    2.9499281   -6.5076014
C    -5.1279874   -1.0247362   -5.0495317
C    -2.5878144   -6.7931124    0.0308143
C    -6.4194341   -2.9499281    1.7125710
C    -6.8097441    1.0247362   -2.3283921
C    -3.2193493   -0.3619705   -6.5076014
C    -0.6100532   -5.1936667   -5.0495317
C     4.5606545    1.5994457   -5.4301301
C     2.9304831   -3.8431843   -5.4301301
C    -2.7495164   -3.9746643   -5.4301301
C    -4.6297777    1.3867067   -5.4301301
C    -0.1118435    4.8316961   -5.4301301
C    -1.1639037    4.2393943    5.8052584
C    -4.3915696    0.2031067    5.8052584
C    -1.5502355   -4.1138674    5.8052584
C     3.4334713   -2.7456166    5.8052584
C     1.2217733   -5.9726901    3.9827633
C     3.8291331   -6.1757967   -0.4747996
C     6.9500195   -2.0619293   -0.6883586
C     6.2714735    0.6836872    3.6372176
C     2.4924565    2.0619293    6.5241297
C     7.0567989    1.7332958   -0.4747996
C     4.1086854    5.9726901   -0.6883586
C     1.2877667    6.1757967    3.6372176
C    -1.1907999    3.0076382    6.5241297
C     2.5222238    5.5501481    3.9827633
C     0.5322085    7.2470325   -0.4747996
C    -4.4107122    5.7532548   -0.6883586
C    -5.4755899    3.1331651    3.6372176
C    -3.2284113   -0.2031067    6.5241297
C    -4.4990945    4.1138674    3.9827633
C    -6.7278760    2.7456166   -0.4747996
C    -6.8346555   -2.4169831   -0.6883586
C    -4.6718674   -4.2393943    3.6372176
C    -0.8044681   -3.1331651    6.5241297
C    -5.3028171   -3.0076382    3.9827633
C    -4.6902645   -5.5501481   -0.4747996
C     0.1866628   -7.2470325   -0.6883586
C     2.5882171   -5.7532548    3.6372176
C     4.6902645   -5.5501481    0.4747996
C    -0.1866628   -7.2470325    0.6883586
C    -2.5882171   -5.7532548   -3.6372176
C     0.8044681   -3.1331651   -6.5241297
C     5.3028171   -3.0076382   -3.9827633
C     6.7278760    2.7456166    0.4747996
C     6.8346555   -2.4169831    0.6883586
C     4.6718674   -4.2393943   -3.6372176
C     3.2284113   -0.2031067   -6.5241297
C     4.4990945    4.1138674   -3.9827633
C    -0.5322085    7.2470325    0.4747996
C     4.4107122    5.7532548    0.6883586
C     5.4755899    3.1331651   -3.6372176
C     1.1907999    3.0076382   -6.5241297
C    -2.5222238    5.5501481   -3.9827633
C    -7.0567989    1.7332958    0.4747996
C    -4.1086854    5.9726901    0.6883586
C    -1.2877667    6.1757967   -3.6372176
C    -2.4924565    2.0619293   -6.5241297
C    -6.0579146   -0.6836872   -3.9827633
C    -3.8291331   -6.1757967    0.4747996
C    -6.9500195   -2.0619293    0.6883586
C    -6.2714735    0.6836872   -3.6372176
C    -2.7312227   -1.7332958   -6.5241297
C    -1.2217733   -5.9726901   -3.9827633
C     4.3915696    0.2031067   -5.8052584
C     1.5502355   -4.1138674   -5.8052584
C    -3.4334713   -2.7456166   -5.8052584
C    -3.6722375    2.4169831   -5.8052584
C     1.1639037    4.2393943   -5.8052584
C     0.1353948    5.9130742    4.4713871
C    -5.5818285    1.9560085    4.4713871
C    -3.5851545   -4.7041945    4.4713871
C     3.3660811   -4.8633606    4.4713871
C    -0.8266511   -5.2141069    5.2063248
C     1.5947740   -7.1701155   -1.0110494
C     6.2836628   -2.4659210   -3.0677185
C     6.7601302    2.3974396    1.8785643
C     0.0662886    2.4659210    6.9922043
C     7.3119973   -0.6989673   -1.0110494
C     4.2869888    5.2141069   -3.0677185
C    -0.1911054    7.1701155    1.8785643
C    -2.3247459    0.8250557    6.9922043
C     3.7335500    3.7324078    5.2063248
C     2.9242888    6.7381299   -1.0110494
C    -3.6341580    5.6884163   -3.0677185
C    -6.8782399    2.0339354    1.8785643
C    -1.5030606   -1.9560085    6.9922043
C    -2.3960003    4.7041945    5.2063248
C    -5.5046874    4.8633606   -1.0110494
C    -6.5330220   -1.6984723   -3.0677185
C    -4.0598806   -5.9130742    1.8785643
C     1.3958034   -2.0339354    6.9922043
C    -5.2143596   -0.8250557    5.2063248
C    -6.3263728   -3.7324078   -1.0110494
C    -0.4034716   -6.7381299   -3.0677185
C     4.3690957   -5.6884163    1.8785643
C     6.3263728   -3.7324078    1.0110494
C     0.4034716   -6.7381299    3.0677185
C    -4.3690957   -5.6884163   -1.8785643
C    -1.3958034   -2.0339354   -6.9922043
C     5.2143596   -0.8250557   -5.2063248
C     5.5046874    4.8633606    1.0110494
C     6.5330220   -1.6984723    3.0677185
C     4.0598806   -5.9130742   -1.8785643
C     1.5030606   -1.9560085   -6.9922043
C     2.3960003    4.7041945   -5.2063248
C    -2.9242888    6.7381299    1.0110494
C     3.6341580    5.6884163    3.0677185
C     6.8782399    2.0339354   -1.8785643
C     2.3247459    0.8250557   -6.9922043
C    -3.7335500    3.7324078   -5.2063248
C    -7.3119973   -0.6989673    1.0110494
C    -4.2869888    5.2141069    3.0677185
C     0.1911054    7.1701155   -1.8785643
C    -0.0662886    2.4659210   -6.9922043
C    -4.7034611   -2.3974396   -5.2063248
C    -1.5947740   -7.1701155    1.0110494
C    -6.2836628   -2.4659210    3.0677185
C    -6.7601302    2.3974396   -1.8785643
C    -2.3657145    0.6989673   -6.9922043
C     0.8266511   -5.2141069   -5.2063248
C     5.5818285    1.9560085   -4.4713871
C     3.5851545   -4.7041945   -4.4713871
C    -3.3660811   -4.8633606   -4.4713871
C    -5.6655071    1.6984723   -4.4713871
C    -0.1353948    5.9130742   -4.4713871
C    -1.0906669    6.4701876    4.0761585
C    -6.4905487    0.9621120    4.0761585
C    -2.9207128   -5.8755696    4.0761585
C     4.6854489   -4.5934138    4.0761585
C    -1.5607610   -6.1286442    4.4352784
C     1.9448065   -7.0907563   -2.3678794
C     6.8388760   -1.2151866   -3.3795039
C     6.3580098    3.3782272    2.7984356
C     0.0357181    1.2151866    7.6282367
C     7.3446882   -0.3415433   -2.3678794
C     3.2690400    6.1286442   -3.3795039
C    -1.2481519    7.0907563    2.7984356
C    -1.1446736    0.4094833    7.6282367
C     4.8650089    4.0407850    4.4352784
C     2.5944605    6.8796709   -2.3678794
C    -4.8184981    5.0028971   -3.3795039
C    -7.1294101    1.0041012    2.7984356
C    -0.7431654   -0.9621120    7.6282367
C    -2.3396445    5.8755696    4.4352784
C    -5.7412234    4.5934138   -2.3678794
C    -6.2470357   -3.0366838   -3.3795039
C    -3.1580659   -6.4701876    2.7984356
C     0.6853722   -1.0041012    7.6282367
C    -6.3109887   -0.4094833    4.4352784
C    -6.1427317   -4.0407850   -2.3678794
C     0.9576177   -6.8796709   -3.3795039
C     5.1776180   -5.0028971    2.7984356
C     6.1427317   -4.0407850    2.3678794
C    -0.9576177   -6.8796709    3.3795039
C    -5.1776180   -5.0028971   -2.7984356
C    -0.6853722   -1.0041012   -7.6282367
C     6.3109887   -0.4094833   -4.4352784
C     5.7412234    4.5934138    2.3678794
C     6.2470357   -3.0366838    3.3795039
C     3.1580659   -6.4701876   -2.7984356
C     0.7431654   -0.9621120   -7.6282367
C     2.3396445    5.8755696   -4.4352784
C    -2.5944605    6.8796709    2.3678794
C     4.8184981    5.0028971    3.3795039
C     7.1294101    1.0041012   -2.7984356
C     1.1446736    0.4094833   -7.6282367
C    -4.8650089    4.0407850   -4.4352784
C    -7.3446882   -0.3415433    2.3678794
C    -3.2690400    6.1286442    3.3795039
C     1.2481519    7.0907563   -2.7984356
C    -0.0357181    1.2151866   -7.6282367
C    -5.3463854   -3.3782272   -4.4352784
C    -1.9448065   -7.0907563    2.3678794
C    -6.8388760   -1.2151866    3.3795039
C    -6.3580098    3.3782272   -2.7984356
C    -1.1667487    0.3415433   -7.6282367
C     1.5607610   -6.1286442   -4.4352784
C     6.4905487    0.9621120   -4.0761585
C     2.9207128   -5.8755696   -4.0761585
C    -4.6854489   -4.5934138   -4.0761585
C    -5.8164794    3.0366838   -4.0761585
C     1.0906669    6.4701876   -4.0761585