420
Energy =
C     2.5980385    1.8906166    8.7783709
C     5.1881247   -3.7724244    6.7997211
C     7.7903353    1.8818078    4.8118091
C     2.6009213   -1.8866488    8.7783709
C     5.1910075    3.7684565    6.7997211
C     7.7877568   -1.8818078    4.8159812
C     2.3903846    0.5503210    9.2689156
C     6.4545042   -3.5030767    6.1642045
C     7.2119561    2.9527558    5.5855627
C     7.4329128    4.2670924    5.1546710
C     1.1857373    0.2717463    9.9270884
C     7.0588861   -4.5388387    5.4404020
C     6.9012096   -2.1529672    5.9219311
C     6.1310922    2.7124902    6.5102484
C     3.1677871   -0.5595230    8.7740121
C     4.3560903   -0.2809681    8.0201364
C     6.2267273   -1.0781292    6.5910969
C     5.8400079    1.3590973    6.8865243
C     4.7076683    1.0901778    7.7196966
C     5.0842753   -1.3637988    7.4319944
C     6.5847763    0.2736210    6.2857137
C     7.5131476    0.5352087    5.2035975
C     3.7936248    2.1671828    8.0450601
C     4.5302764   -2.7023915    7.4823084
C     9.0147810    1.8866488   -1.5994721
C     4.5834054    7.9881074   -1.6020506
C     0.6176404    7.9905597    4.8118091
C    -1.9799056    6.1014587    6.7997211
C    -6.4146565    0.0024523    6.7997211
C    -1.9845701   -6.0999431    6.7997211
C     9.0134918   -1.8906166   -1.6020506
C     0.6168436   -7.9881074    4.8159812
C     4.5800301   -7.9905597   -1.5994721
C     5.1943287    6.0999431   -4.8159812
C     8.4020554    3.7724244    1.5994721
C     8.4033446   -3.7684565    1.6020506
C     5.1964147   -6.1014587   -4.8118091
C     3.2131339   -0.0024523   -8.7783709
C    -0.9914109    9.1565728    1.5994721
C     6.1807914    6.8275385    1.6020506
C     7.4086125    3.0566297   -4.8118091
C     0.9952452    3.0551141   -8.7783709
C    -4.1962547    6.8250862   -4.8159812
C    -0.9952452    3.0551141    8.7783709
C     4.1962547    6.8250862    4.8159812
C     0.9914109    9.1565728   -1.5994721
C    -6.1807914    6.8275385   -1.6020506
C    -7.4086125    3.0566297    4.8118091
C    -5.1964147   -6.1014587    4.8118091
C    -3.2131339   -0.0024523    8.7783709
C    -5.1943287    6.0999431    4.8159812
C    -8.4020554    3.7724244   -1.5994721
C    -8.4033446   -3.7684565   -1.6020506
C     0.9872389   -9.1565728   -1.6020506
C     4.1970515   -6.8275385    4.8118091
C    -0.9905807   -3.0566297    8.7783709
C    -7.4065264   -3.0551141    4.8159812
C    -6.1841667   -6.8250862   -1.5994721
C     0.9905807   -3.0566297   -8.7783709
C     7.4065264   -3.0551141   -4.8159812
C     6.1841667   -6.8250862    1.5994721
C    -0.9872389   -9.1565728    1.6020506
C    -4.1970515   -6.8275385   -4.8118091
C    -5.1910075    3.7684565   -6.7997211
C     1.9799056    6.1014587   -6.7997211
C     6.4146565    0.0024523   -6.7997211
C     1.9845701   -6.0999431   -6.7997211
C    -5.1881247   -3.7724244   -6.7997211
C    -9.0147810    1.8866488    1.5994721
C    -4.5834054    7.9881074    1.6020506
C    -0.6176404    7.9905597   -4.8118091
C    -2.5980385    1.8906166   -8.7783709
C    -7.7877568   -1.8818078   -4.8159812
C    -0.6168436   -7.9881074   -4.8159812
C    -4.5800301   -7.9905597    1.5994721
C    -9.0134918   -1.8906166    1.6020506
C    -7.7903353    1.8818078   -4.8118091
C    -2.6009213   -1.8866488   -8.7783709
C     8.2211640   -2.9527558    3.9526300
C     8.8547787    2.1033323   -3.0163680
C     3.4155946    8.7312433   -2.0071601
C    -0.5796206    7.7714295    5.5855627
C     5.3261754    5.0560880    6.1642045
C    -3.1627468    6.6279110    6.1642045
C    -7.2808604   -0.9598138    6.1642045
C    -1.3370725   -7.2211085    6.1642045
C     9.3593826   -0.5503210   -2.0071601
C     1.2620558   -2.1033323    9.2689156
C    -0.2677582   -8.7312433    3.9526300
C     4.7366650   -7.7714295   -3.0163680
C     4.9154751    7.2211085   -3.9526300
C     8.3999741    3.5030767    3.0163680
C     7.8953701   -5.0560880    2.0071601
C     4.0990087   -6.6279110   -5.5855627
C     2.2573323    0.9598138   -9.2689156
C    -0.7358892    9.0713604    3.0163680
C     7.2484290    5.9465261    2.0071601
C     7.5701813    1.8502518   -5.5855627
C    -0.2152831    2.4434494   -9.2689156
C    -5.3487170    6.9063399   -3.9526300
C     0.2152831    2.4434494    9.2689156
C     5.3487170    6.9063399    3.9526300
C     0.7358892    9.0713604   -3.0163680
C    -7.2484290    5.9465261   -2.0071601
C    -7.5701813    1.8502518    5.5855627
C    -4.0990087   -6.6279110    5.5855627
C    -2.2573323    0.9598138    9.2689156
C    -4.9154751    7.2211085    3.9526300
C    -8.3999741    3.5030767   -3.0163680
C    -7.8953701   -5.0560880   -2.0071601
C     2.3688219   -9.0713604   -2.0071601
C     5.0368546   -5.9465261    5.5855627
C    -1.6103912   -1.8502518    9.2689156
C    -8.3866477   -2.4434494    3.9526300
C    -5.9273587   -6.9063399   -3.0163680
C     1.6103912   -1.8502518   -9.2689156
C     8.3866477   -2.4434494   -3.9526300
C     5.9273587   -6.9063399    3.0163680
C    -2.3688219   -9.0713604    2.0071601
C    -5.0368546   -5.9465261   -5.5855627
C    -5.3261754    5.0560880   -6.1642045
C     3.1627468    6.6279110   -6.1642045
C     7.2808604   -0.9598138   -6.1642045
C     1.3370725   -7.2211085   -6.1642045
C    -6.4545042   -3.5030767   -6.1642045
C    -8.8547787    2.1033323    3.0163680
C    -3.4155946    8.7312433    2.0071601
C     0.5796206    7.7714295   -5.5855627
C    -2.3903846    0.5503210   -9.2689156
C    -8.2211640   -2.9527558   -3.9526300
C     0.2677582   -8.7312433   -3.9526300
C    -4.7366650   -7.7714295    3.0163680
C    -9.3593826   -0.5503210    2.0071601
C    -7.2119561    2.9527558   -5.5855627
C    -1.2620558   -2.1033323   -9.2689156
C     8.0228733    4.5388387    3.8806380
C     7.4525840    5.7505161    3.3789732
C     6.5101653    6.2276276    4.3429604
C     6.4980078    5.3108214    5.4404020
C     0.1079669    1.2116774    9.9270884
C    -1.1190101    0.4771115    9.9270884
C    -0.7995532   -0.9168063    9.9270884
C     0.6248591   -1.0437290    9.9270884
C     7.9345776   -4.2670924    4.3429604
C     6.3551424   -5.7505161    5.1546710
C     6.7958963   -6.2276276    3.8806380
C     7.7720409   -5.3108214    3.3789732
C     9.1585032    1.0437290   -3.8806380
C     9.4093356   -0.2717463   -3.3789732
C     8.9273421   -1.2116774   -4.3429604
C     8.3786213   -0.4771115   -5.4404020
C     8.5214867    0.9168063   -5.1546710
C     3.1660907    8.8648357   -3.3789732
C     3.9110741    8.1159779   -4.3429604
C     3.0428964    7.8211068   -5.4404020
C     1.7613496    8.3877242   -5.1546710
C     1.8374879    9.0327842   -3.8806380
C    -1.7613496    8.3877242    5.1546710
C    -1.8374879    9.0327842    3.8806380
C    -3.1660907    8.8648357    3.3789732
C    -3.9110741    8.1159779    4.3429604
C    -3.0428964    7.8211068    5.4404020
C    -8.3786213   -0.4771115    5.4404020
C    -8.5214867    0.9168063    5.1546710
C    -9.1585032    1.0437290    3.8806380
C    -9.4093356   -0.2717463    3.3789732
C    -8.9273421   -1.2116774    4.3429604
C    -1.6063267   -8.8648357    4.3429604
C    -2.1353763   -8.1159779    5.4404020
C    -3.5052188   -7.8211068    5.1546710
C    -3.8227784   -8.3877242    3.8806380
C    -2.6491985   -9.0327842    3.3789732
C     3.5052188   -7.8211068   -5.1546710
C     3.8227784   -8.3877242   -3.8806380
C     2.6491985   -9.0327842   -3.3789732
C     1.6063267   -8.8648357   -4.3429604
C     2.1353763   -8.1159779   -5.4404020
C    -0.1079669    1.2116774   -9.9270884
C     1.1190101    0.4771115   -9.9270884
C     0.7995532   -0.9168063   -9.9270884
C    -0.6248591   -1.0437290   -9.9270884
C    -1.1857373    0.2717463   -9.9270884
C    -7.4525840    5.7505161   -3.3789732
C    -6.5101653    6.2276276   -4.3429604
C    -6.4980078    5.3108214   -5.4404020
C    -7.4329128    4.2670924   -5.1546710
C    -8.0228733    4.5388387   -3.8806380
C    -6.7958963   -6.2276276   -3.8806380
C    -7.7720409   -5.3108214   -3.3789732
C    -7.9345776   -4.2670924   -4.3429604
C    -7.0588861   -4.5388387   -5.4404020
C    -6.3551424   -5.7505161   -5.1546710
C     9.2643924    0.5595230   -1.0905026
C     5.3347482    7.2287438   -2.5723440
C     0.5429117    8.6380587    3.5242614
C     1.5110381    2.8398424    8.7740121
C    -0.6851198    6.6692207    6.5102484
C    -6.5545195    1.4093149    6.5102484
C    -3.3657960   -5.7982163    6.5102484
C     4.4743432   -4.9928096    6.5102484
C     8.3830509    2.1529672    3.5242614
C     0.0849976   -7.2287438    5.9219311
C     3.3949927   -8.6380587   -1.0905026
C     8.5234718   -2.8398424   -2.5723440
C     7.8239303    4.9928096    1.0905026
C     8.5648510   -2.7124902    2.5723440
C     5.5165483   -6.6692207   -3.5242614
C     2.8916730   -1.4093149   -8.7740121
C     4.3177135    5.7982163   -5.9219311
C     5.2264160    7.3074518    2.5723440
C     8.0475130    3.1856467   -3.5242614
C     2.2339142    2.3146422   -8.7740121
C    -4.1801845    5.8981369   -5.9219311
C    -2.3307167    8.9838629    1.0905026
C     4.1801845    5.8981369    5.9219311
C     2.3307167    8.9838629   -1.0905026
C    -5.2264160    7.3074518   -2.5723440
C    -8.0475130    3.1856467    3.5242614
C    -2.2339142    2.3146422    8.7740121
C    -2.8916730   -1.4093149    8.7740121
C    -4.3177135    5.7982163    5.9219311
C    -7.8239303    4.9928096   -1.0905026
C    -8.5648510   -2.7124902   -2.5723440
C    -5.5165483   -6.6692207    3.5242614
C     4.6380987   -7.3074518    3.5242614
C     0.4467620   -3.1856467    8.7740121
C    -6.8486782   -2.3146422    5.9219311
C    -7.1661715   -5.8981369   -1.0905026
C    -0.0669530   -8.9838629   -2.5723440
C     6.8486782   -2.3146422   -5.9219311
C     7.1661715   -5.8981369    1.0905026
C     0.0669530   -8.9838629    2.5723440
C    -4.6380987   -7.3074518   -3.5242614
C    -0.4467620   -3.1856467   -8.7740121
C     0.6851198    6.6692207   -6.5102484
C     6.5545195    1.4093149   -6.5102484
C     3.3657960   -5.7982163   -6.5102484
C    -4.4743432   -4.9928096   -6.5102484
C    -6.1310922    2.7124902   -6.5102484
C    -5.3347482    7.2287438    2.5723440
C    -0.5429117    8.6380587   -3.5242614
C    -1.5110381    2.8398424   -8.7740121
C    -6.9012096   -2.1529672   -5.9219311
C    -9.2643924    0.5595230    1.0905026
C    -3.3949927   -8.6380587    1.0905026
C    -8.5234718   -2.8398424    2.5723440
C    -8.3830509    2.1529672   -3.5242614
C    -3.1677871   -0.5595230   -8.7740121
C    -0.0849976   -7.2287438   -5.9219311
C     8.7712255   -1.3590973    2.1437145
C     7.6559221    4.2297120   -2.6217261
C     2.5514915    8.7619153    0.3094916
C     0.5120833    5.9741617    6.8865243
C     2.9495264    5.5888093    6.5910969
C    -4.4038197    4.5322033    6.5910969
C    -5.6712367   -2.7877536    6.5910969
C     0.8988027   -6.2551298    6.5910969
C     9.1215309    0.2809681    0.3094916
C     1.0788894   -4.2297120    8.0201364
C     1.4178794   -8.7619153    2.1437145
C     6.3885052   -5.9741617   -2.6217261
C     6.2972131    6.2551298   -2.1437145
C     8.6799334    1.0781292    2.6217261
C     7.2143246   -5.5888093   -0.3094916
C     3.9258082   -4.5322033   -6.8865243
C     3.3590022    2.7877536   -8.0201364
C     1.6568851    8.5882675    2.6217261
C     7.5446224    5.1341934   -0.3094916
C     5.5235230    2.3331377   -6.8865243
C    -1.6133225    4.0560641   -8.0201364
C    -4.0030361    7.9219470   -2.1437145
C     1.6133225    4.0560641    8.0201364
C     4.0030361    7.9219470    2.1437145
C    -1.6568851    8.5882675   -2.6217261
C    -7.5446224    5.1341934    0.3094916
C    -5.5235230    2.3331377    6.8865243
C    -3.9258082   -4.5322033    6.8865243
C    -3.3590022    2.7877536    8.0201364
C    -6.2972131    6.2551298    2.1437145
C    -8.6799334    1.0781292   -2.6217261
C    -7.2143246   -5.5888093    0.3094916
C     3.0859246   -8.5882675    0.3094916
C     3.0972401   -5.1341934    6.8865243
C    -3.6893000   -2.3331377    8.0201364
C    -7.8949278   -4.0560641    2.1437145
C    -3.7076088   -7.9219470   -2.6217261
C     3.6893000   -2.3331377   -8.0201364
C     7.8949278   -4.0560641   -2.1437145
C     3.7076088   -7.9219470    2.6217261
C    -3.0859246   -8.5882675   -0.3094916
C    -3.0972401   -5.1341934   -6.8865243
C    -2.9495264    5.5888093   -6.5910969
C     4.4038197    4.5322033   -6.5910969
C     5.6712367   -2.7877536   -6.5910969
C    -0.8988027   -6.2551298   -6.5910969
C    -6.2267273   -1.0781292   -6.5910969
C    -7.6559221    4.2297120    2.6217261
C    -2.5514915    8.7619153   -0.3094916
C    -0.5120833    5.9741617   -6.8865243
C    -4.3560903   -0.2809681   -8.0201364
C    -8.7712255   -1.3590973   -2.1437145
C    -1.4178794   -8.7619153   -2.1437145
C    -6.3885052   -5.9741617    2.6217261
C    -9.1215309    0.2809681   -0.3094916
C    -5.8400079    1.3590973   -6.8865243
C    -1.0788894   -4.2297120   -8.0201364
C     8.5669147   -0.2736210    3.0785463
C     8.0189706    4.1403752   -1.2238251
C     3.8210761    8.2321736    0.7583133
C     1.7745787    6.3470479    6.2857137
C     2.8681772    4.4139962    7.4319944
C    -3.3116443    4.0917984    7.4319944
C    -4.9148859   -1.8851257    7.4319944
C     0.2740778   -5.2568702    7.4319944
C     9.0100398   -1.0901778    0.7583133
C     2.4915702   -4.1403752    7.7196966
C     2.3870932   -8.2321736    3.0785463
C     6.4157290   -6.3470479   -1.2238251
C     6.7699492    5.2568702   -3.0785463
C     8.9211349    1.3637988    1.2238251
C     7.9300657   -4.4139962   -0.7583133
C     5.1663655   -4.0917984   -6.2857137
C     4.4493741    1.8851257   -7.7196966
C     1.4597326    8.9059405    1.2238251
C     6.6484849    6.1779408   -0.7583133
C     5.4880263    3.6490703   -6.2857137
C    -0.4179289    4.8141421   -7.7196966
C    -2.9075513    8.0630665   -3.0785463
C     0.4179289    4.8141421    7.7196966
C     2.9075513    8.0630665    3.0785463
C    -1.4597326    8.9059405   -1.2238251
C    -6.6484849    6.1779408    0.7583133
C    -5.4880263    3.6490703    6.2857137
C    -5.1663655   -4.0917984    6.2857137
C    -4.4493741    1.8851257    7.7196966
C    -6.7699492    5.2568702    3.0785463
C    -8.9211349    1.3637988   -1.2238251
C    -7.9300657   -4.4139962    0.7583133
C     1.7474348   -8.9059405    0.7583133
C     2.2950368   -6.1779408    6.2857137
C    -3.1677933   -3.6490703    7.7196966
C    -7.0916100   -4.8141421    3.0785463
C    -4.0538320   -8.0630665   -1.2238251
C     3.1677933   -3.6490703   -7.7196966
C     7.0916100   -4.8141421   -3.0785463
C     4.0538320   -8.0630665    1.2238251
C    -1.7474348   -8.9059405   -0.7583133
C    -2.2950368   -6.1779408   -6.2857137
C    -2.8681772    4.4139962   -7.4319944
C     3.3116443    4.0917984   -7.4319944
C     4.9148859   -1.8851257   -7.4319944
C    -0.2740778   -5.2568702   -7.4319944
C    -5.0842753   -1.3637988   -7.4319944
C    -8.0189706    4.1403752    1.2238251
C    -3.8210761    8.2321736   -0.7583133
C    -1.7745787    6.3470479   -6.2857137
C    -4.7076683    1.0901778   -7.7196966
C    -8.5669147   -0.2736210   -3.0785463
C    -2.3870932   -8.2321736   -3.0785463
C    -6.4157290   -6.3470479    1.2238251
C    -9.0100398   -1.0901778   -0.7583133
C    -6.5847763    0.2736210   -6.2857137
C    -2.4915702   -4.1403752   -7.7196966
C     8.7183813    2.7023915    0.7058123
C     5.9201684    6.9800394    0.2047391
C     2.9855441    7.4565884    4.3928440
C     3.9700594    3.4734640    7.4823084
C    -0.8888188    4.2776479    8.0450601
C    -4.3429451    0.4765490    8.0450601
C    -1.7952688   -3.9831245    8.0450601
C     3.2334079   -2.9382553    8.0450601
C     8.0142209   -0.5352087    4.3928440
C     2.8307040   -6.9800394    5.2035975
C     5.2642550   -7.4565884    0.7058123
C     8.4678446   -3.4734640    0.2047391
C     8.6417445    2.9382553   -0.7058123
C     8.8922811   -2.1671828   -0.2047391
C     6.7982287   -4.2776479   -4.3928440
C     5.2534964   -0.4765490   -7.4823084
C     6.3928519    3.9831245   -5.2035975
C     4.8089793    7.7873656   -0.2047391
C     6.1690531    5.1436338   -4.3928440
C     2.0766447    4.8491103   -7.4823084
C    -1.8126766    7.3108166   -5.2035975
C    -0.1240009    9.1267582   -0.7058123
C     1.8126766    7.3108166    5.2035975
C     0.1240009    9.1267582    0.7058123
C    -4.8089793    7.7873656    0.2047391
C    -6.1690531    5.1436338    4.3928440
C    -2.0766447    4.8491103    7.4823084
C    -5.2534964   -0.4765490    7.4823084
C    -6.3928519    3.9831245    5.2035975
C    -8.6417445    2.9382553    0.7058123
C    -8.8922811   -2.1671828    0.2047391
C    -6.7982287   -4.2776479    4.3928440
C     1.9675168   -7.7873656    4.3928440
C    -1.1701947   -5.1436338    7.4823084
C    -5.7636763   -4.8491103    5.2035975
C    -5.4648927   -7.3108166    0.7058123
C    -0.6867526   -9.1267582    0.2047391
C     5.7636763   -4.8491103   -5.2035975
C     5.4648927   -7.3108166   -0.7058123
C     0.6867526   -9.1267582   -0.2047391
C    -1.9675168   -7.7873656   -4.3928440
C     1.1701947   -5.1436338   -7.4823084
C     0.8888188    4.2776479   -8.0450601
C     4.3429451    0.4765490   -8.0450601
C     1.7952688   -3.9831245   -8.0450601
C    -3.2334079   -2.9382553   -8.0450601
C    -3.7936248    2.1671828   -8.0450601
C    -5.9201684    6.9800394   -0.2047391
C    -2.9855441    7.4565884   -4.3928440
C    -3.9700594    3.4734640   -7.4823084
C    -7.5131476    0.5352087   -5.2035975
C    -8.7183813    2.7023915   -0.7058123
C    -5.2642550   -7.4565884   -0.7058123
C    -8.4678446   -3.4734640   -0.2047391
C    -8.0142209   -0.5352087   -4.3928440
C    -4.5302764   -2.7023915   -7.4823084
C    -2.8307040   -6.9800394   -5.2035975