120
Energy =
C    -1.5267339   -1.3193529    3.9524768
C     1.9059601   -0.6625139    3.9524768
C    -0.3792262    1.9818668    3.9524768
C    -2.0108291   -0.0013815    3.9426669
C     1.0066110   -1.7407383    3.9426669
C     1.0042181    1.7421198    3.9426669
C    -1.3743356    1.1345090    4.7303812
C     1.6696814    0.6229550    4.7303812
C    -0.2953459   -1.7574640    4.7303812
C    -3.1592616    0.2826429    3.2002655
C    -3.8319053   -0.6852708    2.4668113
C    -3.3599845   -2.0016150    2.4901537
C    -2.2235209   -2.2914544    3.2314302
O    -4.9936728   -0.3896814    1.7939623
O    -3.9611069   -2.9991278    1.7633585
C    -5.2172503   -3.4587723    2.2668670
H    -5.0965900   -3.8870051    3.2672709
H    -5.5555033   -4.2345495    1.5817319
H    -5.9506423   -2.6510921    2.3003387
H    -3.5653281    1.2872876    3.2036193
H    -1.8834116   -3.3200278    3.2346978
H    -0.9106506    0.7471682    5.6358520
H    -2.1770872    1.7925736    5.0688607
C    -4.8966599    0.4361507    0.6259680
C     1.8244067    2.5946793    3.2002655
C     1.3224907    3.6611627    2.4668113
C    -0.0534572    3.9106394    2.4901537
C    -0.8726973    3.0713528    3.2314302
O     2.1593624    4.5194882    1.7939623
O    -0.6167674    4.9299831    1.7633585
C    -0.3867595    6.2476574    2.2668670
H    -0.8179502    6.3572789    3.2672709
H    -0.8894758    6.9284817    1.5817319
H     0.6794080    6.4789535    2.3003387
H     2.8974878    2.4440209    3.2036193
H    -1.9335226    3.2910962    3.2346978
H     1.1023920    0.4150625    5.6358520
H     2.6409579    0.9891260    5.0688607
C     2.8260475    4.0225565    0.6259680
C     1.3348549   -2.8773222    3.2002655
C     2.5094145   -2.9758919    2.4668113
C     3.4134417   -1.9090244    2.4901537
C     3.0962182   -0.7798984    3.2314302
O     2.8343104   -4.1298068    1.7939623
O     4.5778743   -1.9308553    1.7633585
C     5.6040098   -2.7888851    2.2668670
H     5.9145401   -2.4702738    3.2672709
H     6.4449791   -2.6939322    1.5817319
H     5.2712343   -3.8278614    2.3003387
H     0.6678403   -3.7313085    3.2036193
H     3.8169342    0.0289316    3.2346978
H    -0.1917414   -1.1622307    5.6358520
H    -0.4638707   -2.7816996    5.0688607
C     2.0706124   -4.4587072    0.6259680
C    -1.5267339    1.3193529   -3.9524768
C     1.9059601    0.6625139   -3.9524768
C    -0.3792262   -1.9818668   -3.9524768
C    -2.0108291    0.0013815   -3.9426669
C     1.0066110    1.7407383   -3.9426669
C     1.0042181   -1.7421198   -3.9426669
C    -1.3743356   -1.1345090   -4.7303812
C     1.6696814   -0.6229550   -4.7303812
C    -0.2953459    1.7574640   -4.7303812
C    -3.1592616   -0.2826429   -3.2002655
C    -3.8319053    0.6852708   -2.4668113
C    -3.3599845    2.0016150   -2.4901537
C    -2.2235209    2.2914544   -3.2314302
O    -4.9936728    0.3896814   -1.7939623
O    -3.9611069    2.9991278   -1.7633585
C    -5.2172503    3.4587723   -2.2668670
H    -5.0965900    3.8870051   -3.2672709
H    -5.5555033    4.2345495   -1.5817319
H    -5.9506423    2.6510921   -2.3003387
H    -3.5653281   -1.2872876   -3.2036193
H    -1.8834116    3.3200278   -3.2346978
H    -0.9106506   -0.7471682   -5.6358520
H    -2.1770872   -1.7925736   -5.0688607
C    -4.8966599   -0.4361507   -0.6259680
C     1.3348549    2.8773222   -3.2002655
C     2.5094145    2.9758919   -2.4668113
C     3.4134417    1.9090244   -2.4901537
C     3.0962182    0.7798984   -3.2314302
O     2.8343104    4.1298068   -1.7939623
O     4.5778743    1.9308553   -1.7633585
C     5.6040098    2.7888851   -2.2668670
H     5.9145401    2.4702738   -3.2672709
H     6.4449791    2.6939322   -1.5817319
H     5.2712343    3.8278614   -2.3003387
H     0.6678403    3.7313085   -3.2036193
H     3.8169342   -0.0289316   -3.2346978
H    -0.1917414    1.1622307   -5.6358520
H    -0.4638707    2.7816996   -5.0688607
C     2.0706124    4.4587072   -0.6259680
C     1.8244067   -2.5946793   -3.2002655
C     1.3224907   -3.6611627   -2.4668113
C    -0.0534572   -3.9106394   -2.4901537
C    -0.8726973   -3.0713528   -3.2314302
O     2.1593624   -4.5194882   -1.7939623
O    -0.6167674   -4.9299831   -1.7633585
C    -0.3867595   -6.2476574   -2.2668670
H    -0.8179502   -6.3572789   -3.2672709
H    -0.8894758   -6.9284817   -1.5817319
H     0.6794080   -6.4789535   -2.3003387
H     2.8974878   -2.4440209   -3.2036193
H    -1.9335226   -3.2910962   -3.2346978
H     1.1023920   -0.4150625   -5.6358520
H     2.6409579   -0.9891260   -5.0688607
C     2.8260475   -4.0225565   -0.6259680
H    -4.0053005    1.0656322    0.6655188
H    -5.7756010    1.0821146    0.6188391
H     2.9255148    2.9358759    0.6655188
H     3.8249392    4.4607599    0.6188391
H     1.0797857   -4.0015081    0.6655188
H     1.9506618   -5.5428745    0.6188391
H    -4.0053005   -1.0656322   -0.6655188
H    -5.7756010   -1.0821146   -0.6188391
H     1.0797857    4.0015081   -0.6655188
H     1.9506618    5.5428745   -0.6188391
H     2.9255148   -2.9358759   -0.6655188
H     3.8249392   -4.4607599   -0.6188391