24
Energy =
S    -3.1622363   -3.1622363   -0.0000000
B    -3.5179794   -1.3766167    0.0000000
B    -1.3766167   -3.5179794   -0.0000000
S    -2.3451677    0.0000000    0.0000000
S    -5.2858682   -1.0361386   -0.0000000
S     0.0000000   -2.3451677   -0.0000000
S    -1.0361386   -5.2858682    0.0000000
B    -3.5179794    1.3766167    0.0000000
S    -5.2858682    1.0361386    0.0000000
B     1.3766167   -3.5179794    0.0000000
S     1.0361386   -5.2858682    0.0000000
S    -3.1622363    3.1622363    0.0000000
S     3.1622363   -3.1622363   -0.0000000
B    -1.3766167    3.5179794   -0.0000000
B     3.5179794   -1.3766167    0.0000000
S     0.0000000    2.3451677    0.0000000
S    -1.0361386    5.2858682   -0.0000000
S     2.3451677   -0.0000000    0.0000000
S     5.2858682   -1.0361386   -0.0000000
B     1.3766167    3.5179794   -0.0000000
S     1.0361386    5.2858682   -0.0000000
B     3.5179794    1.3766167    0.0000000
S     5.2858682    1.0361386    0.0000000
S     3.1622363    3.1622363    0.0000000