24
Energy =
S    -3.1491691   -3.1500380   -0.0023473
B    -3.4429242   -1.3757427   -0.3033163
B    -1.3752928   -3.4440547    0.3011856
S    -2.3902576   -0.0007526    0.2157288
S    -5.0160999   -1.0371402   -1.1047697
S     0.0003850   -2.3907654   -0.2144521
S    -1.0377897   -5.0179620    1.1015616
B    -3.4429924    1.3750885   -0.3006728
S    -5.0159882    1.0378321   -1.1029251
B     1.3755378   -3.4439180    0.3030522
S     1.0371905   -5.0180197    1.1027931
S    -3.1496542    3.1489677    0.0035933
S     3.1497272   -3.1495709    0.0020572
B    -1.3754820    3.4439240    0.3038328
B     3.4430814   -1.3755615   -0.3013610
S    -0.0002242    2.3894413   -0.2107417
S    -1.0372418    5.0200025    1.0998998
S     2.3904904   -0.0001220    0.2164864
S     5.0157173   -1.0376930   -1.1040333
B     1.3753952    3.4440931    0.3023165
S     1.0377401    5.0200225    1.0987974
B     3.4428519    1.3752591   -0.3021221
S     5.0156942    1.0372813   -1.1044909
S     3.1493050    3.1494287   -0.0000468